LAMMPS (7 Jul 2009)
# 2D LJ simulation
dimension      2
boundary       p f p
units          lj
atom_style     atomic

# Lattice geometry
read_data      data.pos
  orthogonal box = (0 -10 -0.0001) to (71.2454 80 0.0001)
  4736 atoms

#define groups
group          upper  type 1
64 atoms in group upper
group          slab   type 2
4608 atoms in group slab
group          bottom type 3
64 atoms in group bottom

# Lennard-Jones interactions
pair_style     lj/cut 2.5
pair_coeff     * * 1.0 1.0 2.5

# masses
mass           1 1.0
mass           2 1.0
mass           3 1.0

# Exclude interactions between atoms in fixed group upper
neighbor       0.5 nsq

#Langevin random seed, temperature and damping variable
variable       r equal 23827
variable       t equal 0.01
variable       d equal 0.1

# initial velocities and temperature control
compute        MyTemp all temp/partial 1 1 0
compute        MyPres all pressure MyTemp
velocity       all create $t 4713 mom yes rot yes dist gaussian temp MyTemp
velocity       all create 0.01 4713 mom yes rot yes dist gaussian temp MyTemp

# define fixes
fix            1 all langevin $t $t $d $r
fix            1 all langevin 0.01 $t $d $r
fix            1 all langevin 0.01 0.01 $d $r
fix            1 all langevin 0.01 0.01 0.1 $r
fix            1 all langevin 0.01 0.01 0.1 23827
fix_modify     1 temp MyTemp
fix            2 all nve
# Elastic stiffness coefficients measurement, 1 atom per unit cell
fix            3 bottom gfc 20 100000 1000000 LJ2D_prim su 1.11321 0
fix_modify     3 temp MyTemp
# complex lattice with 2 atoms per unit cell, for comparison only
fix            4 bottom gfc 20 100000 1000000 LJ2D_comp su 2.22642 0
fix_modify     4 temp MyTemp
# Ensure 2D simulation
fix            5 all enforce2d

# Customize thermo output
thermo         10000
thermo_style   custom step temp pe ke etotal press pxx pyy pxy press
thermo_modify  press MyPres temp MyTemp

# write snapshot every 1000th timestep in "LAMMPS" format.
# This file can be read in with VMD and viewed as a movie
dump           1 all atom 50000 dump2D_GFC.lammpstrj

# run for these many timesteps
run 	         11000000
Step Temp PotEng KinEng TotEng Press Pxx Pyy Pxy Press
0         0.01   -3.2860855 0.0099978885   -3.2760876  0.013116248  0.012310817  0.013921679 7.1152926e-05  0.013116248
Averages over the last 551 of 1101 rows, steps 5500000 to 11000000:
Temp PotEng KinEng TotEng Press Pxx Pyy Pxy Press
0.0100005 -3.27607 0.00999834 -3.26607 0.0246814 0.0500722 -0.000709348 0.00117732 0.0246814
Loop time of 8497.77 on 4 procs for 11000000 steps with 4736 atoms

Pair  time (%) = 5777.44 (67.9877)
Neigh time (%) = 0.0170593 (0.000200751)
Comm  time (%) = 648.299 (7.62905)
Outpt time (%) = 2.49705 (0.0293848)
Other time (%) = 2069.52 (24.3537)
