LAMMPS (7 Jul 2009)
# 3D Copper block simulation
units         metal
boundary      p p fs
atom_style    atomic

# read in initial configuration
read_data     data.pos
  orthogonal box = (0 0 -5) to (39.8471 40.8991 50)
  5760 atoms

# define groups
group         bottom id > 5472
288 atoms in group bottom
group         upper  id < 289
288 atoms in group upper
group         slab   subtract all bottom upper
5184 atoms in group slab
group         mobile subtract all upper
5472 atoms in group mobile

# EAM potential
pair_style    eam
pair_coeff    * * cuu3.eam
mass          1 63.55

#
neighbor      4.0 nsq
neigh_modify  every 4 delay 0 check yes

# Define Langevin thermostat parameters
variable      r equal 570835
variable      t equal 100
variable      d equal 1000

# Create velocities
compute       MyTemp mobile temp
velocity      mobile create $t 28711 mom yes rot yes dist gaussian temp MyTemp
velocity      mobile create 100 28711 mom yes rot yes dist gaussian temp MyTemp
velocity      upper set 0 0 0 units box

# Defines fixes, gfc is used to measure the elastic stiffness coefficients
fix           1 mobile langevin $t $t $d $r
fix           1 mobile langevin 100 $t $d $r
fix           1 mobile langevin 100 100 $d $r
fix           1 mobile langevin 100 100 1000 $r
fix           1 mobile langevin 100 100 1000 570835
fix_modify    1 temp MyTemp
fix           2 mobile nve
fix           3 bottom gfc 20 250000 5000000 EAMCu111 su 4.427453  0.0 sv 0 2.556191
fix_modify    3 temp MyTemp

# Thermo output
thermo        1000
thermo_style  custom step temp pe etotal pxx pyy pzz pxy pxz pyz press
thermo_modify temp MyTemp

# Dump trajectory, can be visualized via vmd
dump          1 all atom 100000 dump_EAM3D_GFC.lammpstrj

# Run for 10500000 steps; the measurement is done in the last 10 million steps
run           15000000
Step Temp PotEng TotEng Pxx Pyy Pzz Pxy Pxz Pyz Press
0          100   -20149.233   -20078.515   -4103.3894   -4104.4252   -2142.9507    7.4109073   -14.905056    10.156707   -3450.2551
Averages over the last 7501 of 15001 rows, steps 7500000 to 15000000:
Temp PotEng TotEng Pxx Pyy Pzz Pxy Pxz Pyz Press
99.8051 -20079.2 -20008.6 -149.424 -151.508 0.15678 0.131214 -0.0537985 0.196048 -100.258
Loop time of 120264 on 4 procs for 15000000 steps with 5760 atoms

Pair  time (%) = 103856 (86.3569)
Neigh time (%) = 0 (0)
Comm  time (%) = 12777.3 (10.6244)
Outpt time (%) = 3.26117 (0.00271168)
Other time (%) = 3627.16 (3.01601)
