LAMMPS (7 Jul 2009)
# 2D LJ simulation
dimension      2
boundary       p f p
units          lj
atom_style     atomic

# Lattice geometry
read_data      data.pos
  orthogonal box = (0 -10 -0.0001) to (17.8114 20 0.0001)
  288 atoms

#define groups
group          upper  type 1
16 atoms in group upper
group          slab   type 2
256 atoms in group slab
group          bottom type 3
16 atoms in group bottom
group          mobile union slab bottom
272 atoms in group mobile

# Lennard-Jones interactions
pair_style     lj/cut 2.5
pair_coeff     * * 1.0 1.0 2.5

# masses
mass           1 1.0
mass           2 1.0
mass           3 1.0

# Exclude interactions between atoms in fixed group upper
neighbor       0.5 nsq
neigh_modify   exclude type 1 1

#Langevin random seed, temperature and damping variable
variable       r equal 23827
variable       t equal 0.01
variable       d equal 0.1

# initial velocities and temperature control
compute        MyTemp mobile temp/partial 1 1 0
velocity       mobile create $t 4713 mom yes rot yes dist gaussian temp MyTemp
velocity       mobile create 0.01 4713 mom yes rot yes dist gaussian temp MyTemp
velocity       upper set 0 0 0 units box

# define fixes
fix            1 mobile langevin $t $t $d $r
fix            1 mobile langevin 0.01 $t $d $r
fix            1 mobile langevin 0.01 0.01 $d $r
fix            1 mobile langevin 0.01 0.01 0.1 $r
fix            1 mobile langevin 0.01 0.01 0.1 23827
fix_modify     1 temp MyTemp
fix            2 mobile nve
# Elastic stiffness coefficients measurement, 1 atom per unit cell
fix            3 bottom gfc 20 250000 500000 LJ2D_prim su 1.11321 0
fix_modify     3 temp MyTemp
# complex lattice with 2 atoms per unit cell, for comparison
fix            4 bottom gfc 20 250000 500000 LJ2D_comp su 2.22642 0
fix_modify     4 temp MyTemp
# Ensure 2D simulation
fix            5 all enforce2d

# Customize thermo output
thermo         10000
thermo_style   custom step temp pe ke etotal pxx pyy pxy press

# write snapshot every 1000th timestep in "LAMMPS" format.
# This file can be read in with VMD and viewed as a movie
dump           1 all atom 50000 dump2D_GFC.lammpstrj

# run for these many timesteps
run 	         10500000
Step Temp PotEng KinEng TotEng Pxx Pyy Pxy Press
0 0.0094425087   -3.1266845 0.0094097222   -3.1172748 0.0068775736  0.027363683 -0.00019985295  0.017120628
Averages over the last 526 of 1051 rows, steps 5250000 to 10500000:
Temp PotEng KinEng TotEng Pxx Pyy Pxy Press
0.00943686 -3.11726 0.00940409 -3.10786 0.0283368 0.000664496 0.000338795 0.0145007
Loop time of 1645.53 on 1 procs for 10500000 steps with 288 atoms

Pair  time (%) = 1272.67 (77.3409)
Neigh time (%) = 0 (0)
Comm  time (%) = 19.3654 (1.17685)
Outpt time (%) = 0.335888 (0.0204122)
Other time (%) = 353.16 (21.4618)
